pcf
* control data
restart regularisation
     405    3900       7     103       7
4 3 double point 1 0 0
10.0 -3.0 0.3 0.03 10 999 UPTESTMIN=25
 10.0  10.0  0.001 ABSPARMAX(1)=8.0 ABSPARMAX(2)=0.5
 0.1  noaui
 50  0.005  4  4  0.005  4
 1  1  1  parsaveitn
* singular value decomposition
    1
  1005   5.0e-7
    0
* parameter groups
k_m          relative     0.01         0.0          switch       2.0          parabolic
z            absolute     0.01         0.0          switch       2.0          parabolic
z_aa         absolute     0.01         0.0          switch       2.0          parabolic
sill_m       relative     0.01         0.0          switch       2.0          parabolic
range_m      relative     0.01         0.0          switch       2.0          parabolic
af_m         relative     0.01         0.0          switch       2.0          parabolic
aa_m         absolute     0.01         0.0          switch       2.0          parabolic
* parameter data
k_m           fixed         factor        1.0           0.1           10            k_m           1.0           0.0           1
zfac1            none          absolute(1)   0.0           -100            100             z            0.0578          0.0           1
zfac2            none          absolute(1)   0.0           -100            100             z            0.0578          0.0           1
zfac3            none          absolute(1)   0.0           -100            100             z            0.0578          0.0           1
zfac4            none          absolute(1)   0.0           -100            100             z            0.0578          0.0           1
zfac5            none          absolute(1)   0.0           -100            100             z            0.0578          0.0           1
zfac6            none          absolute(1)   0.0           -100            100             z            0.0578          0.0           1
zfac7            none          absolute(1)   0.0           -100            100             z            0.0578          0.0           1
zfac8            none          absolute(1)   0.0           -100            100             z            0.0578          0.0           1
zfac9            none          absolute(1)   0.0           -100            100             z            0.0578          0.0           1
zfac10           none          absolute(1)   0.0           -100            100             z            0.0578          0.0           1
zfac11           none          absolute(1)   0.0           -100            100             z            0.0578          0.0           1
zfac12           none          absolute(1)   0.0           -100            100             z            0.0578          0.0           1
zfac13           none          absolute(1)   0.0           -100            100             z            0.0578          0.0           1
zfac14           none          absolute(1)   0.0           -100            100             z            0.0578          0.0           1
zfac15           none          absolute(1)   0.0           -100            100             z            0.0578          0.0           1
zfac16           none          absolute(1)   0.0           -100            100             z            0.0578          0.0           1
zfac17           none          absolute(1)   0.0           -100            100             z            0.0578          0.0           1
zfac18           none          absolute(1)   0.0           -100            100             z            0.0578          0.0           1
zfac19           none          absolute(1)   0.0           -100            100             z            0.0578          0.0           1
zfac20           none          absolute(1)   0.0           -100            100             z            0.0578          0.0           1
zfac21           none          absolute(1)   0.0           -100            100             z            0.0578          0.0           1
zfac22           none          absolute(1)   0.0           -100            100             z            0.0578          0.0           1
zfac23           none          absolute(1)   0.0           -100            100             z            0.0578          0.0           1
zfac24           none          absolute(1)   0.0           -100            100             z            0.0578          0.0           1
zfac25           none          absolute(1)   0.0           -100            100             z            0.0578          0.0           1
zfac26           none          absolute(1)   0.0           -100            100             z            0.0578          0.0           1
zfac27           none          absolute(1)   0.0           -100            100             z            0.0578          0.0           1
zfac28           none          absolute(1)   0.0           -100            100             z            0.0578          0.0           1
zfac29           none          absolute(1)   0.0           -100            100             z            0.0578          0.0           1
zfac30           none          absolute(1)   0.0           -100            100             z            0.0578          0.0           1
zfac31           none          absolute(1)   0.0           -100            100             z            0.0578          0.0           1
zfac32           none          absolute(1)   0.0           -100            100             z            0.0578          0.0           1
zfac33           none          absolute(1)   0.0           -100            100             z            0.0578          0.0           1
zfac34           none          absolute(1)   0.0           -100            100             z            0.0578          0.0           1
zfac35           none          absolute(1)   0.0           -100            100             z            0.0578          0.0           1
zfac36           none          absolute(1)   0.0           -100            100             z            0.0578          0.0           1
zfac37           none          absolute(1)   0.0           -100            100             z            0.0578          0.0           1
zfac38           none          absolute(1)   0.0           -100            100             z            0.0578          0.0           1
zfac39           none          absolute(1)   0.0           -100            100             z            0.0578          0.0           1
zfac40           none          absolute(1)   0.0           -100            100             z            0.0578          0.0           1
zfac41           none          absolute(1)   0.0           -100            100             z            0.0578          0.0           1
zfac42           none          absolute(1)   0.0           -100            100             z            0.0578          0.0           1
zfac43           none          absolute(1)   0.0           -100            100             z            0.0578          0.0           1
zfac44           none          absolute(1)   0.0           -100            100             z            0.0578          0.0           1
zfac45           none          absolute(1)   0.0           -100            100             z            0.0578          0.0           1
zfac46           none          absolute(1)   0.0           -100            100             z            0.0578          0.0           1
zfac47           none          absolute(1)   0.0           -100            100             z            0.0578          0.0           1
zfac48           none          absolute(1)   0.0           -100            100             z            0.0578          0.0           1
zfac49           none          absolute(1)   0.0           -100            100             z            0.0578          0.0           1
zfac50           none          absolute(1)   0.0           -100            100             z            0.0578          0.0           1
zfac51           none          absolute(1)   0.0           -100            100             z            0.0578          0.0           1
zfac52           none          absolute(1)   0.0           -100            100             z            0.0578          0.0           1
zfac53           none          absolute(1)   0.0           -100            100             z            0.0578          0.0           1
zfac54           none          absolute(1)   0.0           -100            100             z            0.0578          0.0           1
zfac55           none          absolute(1)   0.0           -100            100             z            0.0578          0.0           1
zfac56           none          absolute(1)   0.0           -100            100             z            0.0578          0.0           1
zfac57           none          absolute(1)   0.0           -100            100             z            0.0578          0.0           1
zfac58           none          absolute(1)   0.0           -100            100             z            0.0578          0.0           1
zfac59           none          absolute(1)   0.0           -100            100             z            0.0578          0.0           1
zfac60           none          absolute(1)   0.0           -100            100             z            0.0578          0.0           1
zfac61           none          absolute(1)   0.0           -100            100             z            0.0578          0.0           1
zfac62           none          absolute(1)   0.0           -100            100             z            0.0578          0.0           1
zfac63           none          absolute(1)   0.0           -100            100             z            0.0578          0.0           1
zfac64           none          absolute(1)   0.0           -100            100             z            0.0578          0.0           1
zfac65           none          absolute(1)   0.0           -100            100             z            0.0578          0.0           1
zfac66           none          absolute(1)   0.0           -100            100             z            0.0578          0.0           1
zfac67           none          absolute(1)   0.0           -100            100             z            0.0578          0.0           1
zfac68           none          absolute(1)   0.0           -100            100             z            0.0578          0.0           1
zfac69           none          absolute(1)   0.0           -100            100             z            0.0578          0.0           1
zfac70           none          absolute(1)   0.0           -100            100             z            0.0578          0.0           1
zfac71           none          absolute(1)   0.0           -100            100             z            0.0578          0.0           1
zfac72           none          absolute(1)   0.0           -100            100             z            0.0578          0.0           1
zfac73           none          absolute(1)   0.0           -100            100             z            0.0578          0.0           1
zfac74           none          absolute(1)   0.0           -100            100             z            0.0578          0.0           1
zfac75           none          absolute(1)   0.0           -100            100             z            0.0578          0.0           1
zfac76           none          absolute(1)   0.0           -100            100             z            0.0578          0.0           1
zfac77           none          absolute(1)   0.0           -100            100             z            0.0578          0.0           1
zfac78           none          absolute(1)   0.0           -100            100             z            0.0578          0.0           1
zfac79           none          absolute(1)   0.0           -100            100             z            0.0578          0.0           1
zfac80           none          absolute(1)   0.0           -100            100             z            0.0578          0.0           1
zfac81           none          absolute(1)   0.0           -100            100             z            0.0578          0.0           1
zfac82           none          absolute(1)   0.0           -100            100             z            0.0578          0.0           1
zfac83           none          absolute(1)   0.0           -100            100             z            0.0578          0.0           1
zfac84           none          absolute(1)   0.0           -100            100             z            0.0578          0.0           1
zfac85           none          absolute(1)   0.0           -100            100             z            0.0578          0.0           1
zfac86           none          absolute(1)   0.0           -100            100             z            0.0578          0.0           1
zfac87           none          absolute(1)   0.0           -100            100             z            0.0578          0.0           1
zfac88           none          absolute(1)   0.0           -100            100             z            0.0578          0.0           1
zfac89           none          absolute(1)   0.0           -100            100             z            0.0578          0.0           1
zfac90           none          absolute(1)   0.0           -100            100             z            0.0578          0.0           1
zfac91           none          absolute(1)   0.0           -100            100             z            0.0578          0.0           1
zfac92           none          absolute(1)   0.0           -100            100             z            0.0578          0.0           1
zfac93           none          absolute(1)   0.0           -100            100             z            0.0578          0.0           1
zfac94           none          absolute(1)   0.0           -100            100             z            0.0578          0.0           1
zfac95           none          absolute(1)   0.0           -100            100             z            0.0578          0.0           1
zfac96           none          absolute(1)   0.0           -100            100             z            0.0578          0.0           1
zfac97           none          absolute(1)   0.0           -100            100             z            0.0578          0.0           1
zfac98           none          absolute(1)   0.0           -100            100             z            0.0578          0.0           1
zfac99           none          absolute(1)   0.0           -100            100             z            0.0578          0.0           1
zfac100          none          absolute(1)   0.0           -100            100             z            0.0578          0.0           1
zfac101          none          absolute(1)   0.0           -100            100             z            0.0578          0.0           1
zfac102          none          absolute(1)   0.0           -100            100             z            0.0578          0.0           1
zfac103          none          absolute(1)   0.0           -100            100             z            0.0578          0.0           1
zfac104          none          absolute(1)   0.0           -100            100             z            0.0578          0.0           1
zfac105          none          absolute(1)   0.0           -100            100             z            0.0578          0.0           1
zfac106          none          absolute(1)   0.0           -100            100             z            0.0578          0.0           1
zfac107          none          absolute(1)   0.0           -100            100             z            0.0578          0.0           1
zfac108          none          absolute(1)   0.0           -100            100             z            0.0578          0.0           1
zfac109          none          absolute(1)   0.0           -100            100             z            0.0578          0.0           1
zfac110          none          absolute(1)   0.0           -100            100             z            0.0578          0.0           1
zfac111          none          absolute(1)   0.0           -100            100             z            0.0578          0.0           1
zfac112          none          absolute(1)   0.0           -100            100             z            0.0578          0.0           1
zfac113          none          absolute(1)   0.0           -100            100             z            0.0578          0.0           1
zfac114          none          absolute(1)   0.0           -100            100             z            0.0578          0.0           1
zfac115          none          absolute(1)   0.0           -100            100             z            0.0578          0.0           1
zfac116          none          absolute(1)   0.0           -100            100             z            0.0578          0.0           1
zfac117          none          absolute(1)   0.0           -100            100             z            0.0578          0.0           1
zfac118          none          absolute(1)   0.0           -100            100             z            0.0578          0.0           1
zfac119          none          absolute(1)   0.0           -100            100             z            0.0578          0.0           1
zfac120          none          absolute(1)   0.0           -100            100             z            0.0578          0.0           1
zfac121          none          absolute(1)   0.0           -100            100             z            0.0578          0.0           1
zfac122          none          absolute(1)   0.0           -100            100             z            0.0578          0.0           1
zfac123          none          absolute(1)   0.0           -100            100             z            0.0578          0.0           1
zfac124          none          absolute(1)   0.0           -100            100             z            0.0578          0.0           1
zfac125          none          absolute(1)   0.0           -100            100             z            0.0578          0.0           1
zfac126          none          absolute(1)   0.0           -100            100             z            0.0578          0.0           1
zfac127          none          absolute(1)   0.0           -100            100             z            0.0578          0.0           1
zfac128          none          absolute(1)   0.0           -100            100             z            0.0578          0.0           1
zfac129          none          absolute(1)   0.0           -100            100             z            0.0578          0.0           1
zfac130          none          absolute(1)   0.0           -100            100             z            0.0578          0.0           1
zfac131          none          absolute(1)   0.0           -100            100             z            0.0578          0.0           1
zfac132          none          absolute(1)   0.0           -100            100             z            0.0578          0.0           1
zfac133          none          absolute(1)   0.0           -100            100             z            0.0578          0.0           1
zfac134          none          absolute(1)   0.0           -100            100             z            0.0578          0.0           1
zfac135          none          absolute(1)   0.0           -100            100             z            0.0578          0.0           1
zfac136          none          absolute(1)   0.0           -100            100             z            0.0578          0.0           1
zfac137          none          absolute(1)   0.0           -100            100             z            0.0578          0.0           1
zfac138          none          absolute(1)   0.0           -100            100             z            0.0578          0.0           1
zfac139          none          absolute(1)   0.0           -100            100             z            0.0578          0.0           1
zfac140          none          absolute(1)   0.0           -100            100             z            0.0578          0.0           1
zfac141          none          absolute(1)   0.0           -100            100             z            0.0578          0.0           1
zfac142          none          absolute(1)   0.0           -100            100             z            0.0578          0.0           1
zfac143          none          absolute(1)   0.0           -100            100             z            0.0578          0.0           1
zfac144          none          absolute(1)   0.0           -100            100             z            0.0578          0.0           1
zfac145          none          absolute(1)   0.0           -100            100             z            0.0578          0.0           1
zfac146          none          absolute(1)   0.0           -100            100             z            0.0578          0.0           1
zfac147          none          absolute(1)   0.0           -100            100             z            0.0578          0.0           1
zfac148          none          absolute(1)   0.0           -100            100             z            0.0578          0.0           1
zfac149          none          absolute(1)   0.0           -100            100             z            0.0578          0.0           1
zfac150          none          absolute(1)   0.0           -100            100             z            0.0578          0.0           1
zfac151          none          absolute(1)   0.0           -100            100             z            0.0578          0.0           1
zfac152          none          absolute(1)   0.0           -100            100             z            0.0578          0.0           1
zfac153          none          absolute(1)   0.0           -100            100             z            0.0578          0.0           1
zfac154          none          absolute(1)   0.0           -100            100             z            0.0578          0.0           1
zfac155          none          absolute(1)   0.0           -100            100             z            0.0578          0.0           1
zfac156          none          absolute(1)   0.0           -100            100             z            0.0578          0.0           1
zfac157          none          absolute(1)   0.0           -100            100             z            0.0578          0.0           1
zfac158          none          absolute(1)   0.0           -100            100             z            0.0578          0.0           1
zfac159          none          absolute(1)   0.0           -100            100             z            0.0578          0.0           1
zfac160          none          absolute(1)   0.0           -100            100             z            0.0578          0.0           1
zfac161          none          absolute(1)   0.0           -100            100             z            0.0578          0.0           1
zfac162          none          absolute(1)   0.0           -100            100             z            0.0578          0.0           1
zfac163          none          absolute(1)   0.0           -100            100             z            0.0578          0.0           1
zfac164          none          absolute(1)   0.0           -100            100             z            0.0578          0.0           1
zfac165          none          absolute(1)   0.0           -100            100             z            0.0578          0.0           1
zfac166          none          absolute(1)   0.0           -100            100             z            0.0578          0.0           1
zfac167          none          absolute(1)   0.0           -100            100             z            0.0578          0.0           1
zfac168          none          absolute(1)   0.0           -100            100             z            0.0578          0.0           1
zfac169          none          absolute(1)   0.0           -100            100             z            0.0578          0.0           1
zfac170          none          absolute(1)   0.0           -100            100             z            0.0578          0.0           1
zfac171          none          absolute(1)   0.0           -100            100             z            0.0578          0.0           1
zfac172          none          absolute(1)   0.0           -100            100             z            0.0578          0.0           1
zfac173          none          absolute(1)   0.0           -100            100             z            0.0578          0.0           1
zfac174          none          absolute(1)   0.0           -100            100             z            0.0578          0.0           1
zfac175          none          absolute(1)   0.0           -100            100             z            0.0578          0.0           1
zfac176          none          absolute(1)   0.0           -100            100             z            0.0578          0.0           1
zfac177          none          absolute(1)   0.0           -100            100             z            0.0578          0.0           1
zfac178          none          absolute(1)   0.0           -100            100             z            0.0578          0.0           1
zfac179          none          absolute(1)   0.0           -100            100             z            0.0578          0.0           1
zfac180          none          absolute(1)   0.0           -100            100             z            0.0578          0.0           1
zfac181          none          absolute(1)   0.0           -100            100             z            0.0578          0.0           1
zfac182          none          absolute(1)   0.0           -100            100             z            0.0578          0.0           1
zfac183          none          absolute(1)   0.0           -100            100             z            0.0578          0.0           1
zfac184          none          absolute(1)   0.0           -100            100             z            0.0578          0.0           1
zfac185          none          absolute(1)   0.0           -100            100             z            0.0578          0.0           1
zfac186          none          absolute(1)   0.0           -100            100             z            0.0578          0.0           1
zfac187          none          absolute(1)   0.0           -100            100             z            0.0578          0.0           1
zfac188          none          absolute(1)   0.0           -100            100             z            0.0578          0.0           1
zfac189          none          absolute(1)   0.0           -100            100             z            0.0578          0.0           1
zfac190          none          absolute(1)   0.0           -100            100             z            0.0578          0.0           1
zfac191          none          absolute(1)   0.0           -100            100             z            0.0578          0.0           1
zfac192          none          absolute(1)   0.0           -100            100             z            0.0578          0.0           1
zfac193          none          absolute(1)   0.0           -100            100             z            0.0578          0.0           1
zfac194          none          absolute(1)   0.0           -100            100             z            0.0578          0.0           1
zfac195          none          absolute(1)   0.0           -100            100             z            0.0578          0.0           1
zfac196          none          absolute(1)   0.0           -100            100             z            0.0578          0.0           1
zfac197          none          absolute(1)   0.0           -100            100             z            0.0578          0.0           1
zfac198          none          absolute(1)   0.0           -100            100             z            0.0578          0.0           1
zfac199          none          absolute(1)   0.0           -100            100             z            0.0578          0.0           1
zfac200          none          absolute(1)   0.0           -100            100             z            0.0578          0.0           1
zfac201          none          absolute(1)   0.0           -100            100             z            0.0578          0.0           1
zfac202          none          absolute(1)   0.0           -100            100             z            0.0578          0.0           1
zfac203          none          absolute(1)   0.0           -100            100             z            0.0578          0.0           1
zfac204          none          absolute(1)   0.0           -100            100             z            0.0578          0.0           1
zfac205          none          absolute(1)   0.0           -100            100             z            0.0578          0.0           1
zfac206          none          absolute(1)   0.0           -100            100             z            0.0578          0.0           1
zfac207          none          absolute(1)   0.0           -100            100             z            0.0578          0.0           1
zfac208          none          absolute(1)   0.0           -100            100             z            0.0578          0.0           1
zfac209          none          absolute(1)   0.0           -100            100             z            0.0578          0.0           1
zfac210          none          absolute(1)   0.0           -100            100             z            0.0578          0.0           1
zfac211          none          absolute(1)   0.0           -100            100             z            0.0578          0.0           1
zfac212          none          absolute(1)   0.0           -100            100             z            0.0578          0.0           1