# File generated by Flopy version 3.3.6 on 06/26/2023 at 16:14:30.
BEGIN options
  
END options

BEGIN packages
  DIS6  sva_tm.dis  dis
  WEL6  sva_tm.wel1  wel1
  WEL6  sva_tm.wel2  wel2
  NPF6  sva_tm.npf  npf
  STO6  sva_tm.sto  sto
  IC6  sva_tm.ic  ic
  OC6  sva_tm.oc  oc
END packages

