# File generated by Flopy version 3.3.6 on 06/26/2023 at 16:14:30.
BEGIN options
END options

BEGIN dimensions
  NLAY  1
  NROW  50
  NCOL  50
END dimensions

BEGIN griddata
  delr
    CONSTANT       0.02000000
  delc
    CONSTANT       0.02000000
  top
    CONSTANT       0.00000000
  botm
    CONSTANT      -1.00000000
  idomain
    CONSTANT  1
END griddata

