# File generated by Flopy version 3.3.6 on 06/26/2023 at 16:14:30.
BEGIN options
  auxiliary  CONCENTRATION
  PRINT_INPUT
  PRINT_FLOWS
END options

BEGIN dimensions
  MAXBOUND  2
END dimensions

BEGIN period  1
  1 17 26  2.50000000E-04       1.00000000
  1 33 26  2.50000000E-04       1.00000000
END period  1

BEGIN period  2
  1 17 26  2.50000000E-04       1.00000000
  1 33 26  2.50000000E-04       1.00000000
END period  2

