# File generated by Flopy version 3.3.6 on 08/18/2023 at 12:51:25.
BEGIN options
  SAVE_FLOWS
END options

BEGIN griddata
  icelltype
    CONSTANT  0
  k
    OPEN/CLOSE  'k.dat'  FACTOR  1.0
  k33
    OPEN/CLOSE  'k.dat'  FACTOR  1.0
END griddata

