# File generated by Flopy version 3.3.6 on 08/18/2023 at 12:51:25.
BEGIN options
  BUDGET  FILEOUT  sva_tm.bud
  HEAD  FILEOUT  sva_tm.hds
END options

BEGIN period  1
  SAVE  HEAD  ALL
  SAVE  BUDGET  ALL
  PRINT  BUDGET  ALL
END period  1

