pcf
* control data
restart regularisation
    1005    3000       7    1003       7
4 2 double point 1 0 0 
10.0 -3.0 0.3 0.03 10 999 UPTESTMIN=25 
 10.0  10.0  0.001 ABSPARMAX(1)=0.5 
 0.1  noaui
 30  0.005  4  4  0.005  4
 1  1  1 
* singular value decomposition
    1
  1005   5.0e-7
    0
* parameter groups
k_m          relative     0.01         0.0          switch       2.0          parabolic
z            absolute     0.01         0.0          switch       2.0          parabolic
z_aa         absolute     0.01         0.0          switch       2.0          parabolic
sill_m       relative     0.01         0.0          switch       2.0          parabolic
range_m      relative     0.01         0.0          switch       2.0          parabolic
af_m         relative     0.01         0.0          switch       2.0          parabolic
aa_m         absolute     0.01         0.0          switch       2.0          parabolic
* parameter data
k_m           fixed         factor        1.0           0.1           10            k_m           1.0           0.0           1
z1            none          absolute(1)   0.0           -5            5             z             1.0           0.0           1
z2            none          absolute(1)   0.0           -5            5             z             1.0           0.0           1
z3            none          absolute(1)   0.0           -5            5             z             1.0           0.0           1
z4            none          absolute(1)   0.0           -5            5             z             1.0           0.0           1
z5            none          absolute(1)   0.0           -5            5             z             1.0           0.0           1
z6            none          absolute(1)   0.0           -5            5             z             1.0           0.0           1
z7            none          absolute(1)   0.0           -5            5             z             1.0           0.0           1
z8            none          absolute(1)   0.0           -5            5             z             1.0           0.0           1
z9            none          absolute(1)   0.0           -5            5             z             1.0           0.0           1
z10           none          absolute(1)   0.0           -5            5             z             1.0           0.0           1
z11           none          absolute(1)   0.0           -5            5             z             1.0           0.0           1
z12           none          absolute(1)   0.0           -5            5             z             1.0           0.0           1
z13           none          absolute(1)   0.0           -5            5             z             1.0           0.0           1
z14           none          absolute(1)   0.0           -5            5             z             1.0           0.0           1
z15           none          absolute(1)   0.0           -5            5             z             1.0           0.0           1
z16           none          absolute(1)   0.0           -5            5             z             1.0           0.0           1
z17           none          absolute(1)   0.0           -5            5             z             1.0           0.0           1
z18           none          absolute(1)   0.0           -5            5             z             1.0           0.0           1
z19           none          absolute(1)   0.0           -5            5             z             1.0           0.0           1
z20           none          absolute(1)   0.0           -5            5             z             1.0           0.0           1
z21           none          absolute(1)   0.0           -5            5             z             1.0           0.0           1
z22           none          absolute(1)   0.0           -5            5             z             1.0           0.0           1
z23           none          absolute(1)   0.0           -5            5             z             1.0           0.0           1
z24           none          absolute(1)   0.0           -5            5             z             1.0           0.0           1
z25           none          absolute(1)   0.0           -5            5             z             1.0           0.0           1
z26           none          absolute(1)   0.0           -5            5             z             1.0           0.0           1
z27           none          absolute(1)   0.0           -5            5             z             1.0           0.0           1
z28           none          absolute(1)   0.0           -5            5             z             1.0           0.0           1
z29           none          absolute(1)   0.0           -5            5             z             1.0           0.0           1
z30           none          absolute(1)   0.0           -5            5             z             1.0           0.0           1
z31           none          absolute(1)   0.0           -5            5             z             1.0           0.0           1
z32           none          absolute(1)   0.0           -5            5             z             1.0           0.0           1
z33           none          absolute(1)   0.0           -5            5             z             1.0           0.0           1
z34           none          absolute(1)   0.0           -5            5             z             1.0           0.0           1
z35           none          absolute(1)   0.0           -5            5             z             1.0           0.0           1
z36           none          absolute(1)   0.0           -5            5             z             1.0           0.0           1
z37           none          absolute(1)   0.0           -5            5             z             1.0           0.0           1
z38           none          absolute(1)   0.0           -5            5             z             1.0           0.0           1
z39           none          absolute(1)   0.0           -5            5             z             1.0           0.0           1
z40           none          absolute(1)   0.0           -5            5             z             1.0           0.0           1
z41           none          absolute(1)   0.0           -5            5             z             1.0           0.0           1
z42           none          absolute(1)   0.0           -5            5             z             1.0           0.0           1
z43           none          absolute(1)   0.0           -5            5             z             1.0           0.0           1
z44           none          absolute(1)   0.0           -5            5             z             1.0           0.0           1
z45           none          absolute(1)   0.0           -5            5             z             1.0           0.0           1
z46           none          absolute(1)   0.0           -5            5             z             1.0           0.0           1
z47           none          absolute(1)   0.0           -5            5             z             1.0           0.0           1
z48           none          absolute(1)   0.0           -5            5             z             1.0           0.0           1
z49           none          absolute(1)   0.0           -5            5             z             1.0           0.0           1
z50           none          absolute(1)   0.0           -5            5             z             1.0           0.0           1
z51           none          absolute(1)   0.0           -5            5             z             1.0           0.0           1
z52           none          absolute(1)   0.0           -5            5             z             1.0           0.0           1
z53           none          absolute(1)   0.0           -5            5             z             1.0           0.0           1
z54           none          absolute(1)   0.0           -5            5             z             1.0           0.0           1
z55           none          absolute(1)   0.0           -5            5             z             1.0           0.0           1
z56           none          absolute(1)   0.0           -5            5             z             1.0           0.0           1
z57           none          absolute(1)   0.0           -5            5             z             1.0           0.0           1
z58           none          absolute(1)   0.0           -5            5             z             1.0           0.0           1
z59           none          absolute(1)   0.0           -5            5             z             1.0           0.0           1
z60           none          absolute(1)   0.0           -5            5             z             1.0           0.0           1
z61           none          absolute(1)   0.0           -5            5             z             1.0           0.0           1
z62           none          absolute(1)   0.0           -5            5             z             1.0           0.0           1
z63           none          absolute(1)   0.0           -5            5             z             1.0           0.0           1
z64           none          absolute(1)   0.0           -5            5             z             1.0           0.0           1
z65           none          absolute(1)   0.0           -5            5             z             1.0           0.0           1
z66           none          absolute(1)   0.0           -5            5             z             1.0           0.0           1
z67           none          absolute(1)   0.0           -5            5             z             1.0           0.0           1
z68           none          absolute(1)   0.0           -5            5             z             1.0           0.0           1
z69           none          absolute(1)   0.0           -5            5             z             1.0           0.0           1
z70           none          absolute(1)   0.0           -5            5             z             1.0           0.0           1
z71           none          absolute(1)   0.0           -5            5             z             1.0           0.0           1
z72           none          absolute(1)   0.0           -5            5             z             1.0           0.0           1
z73           none          absolute(1)   0.0           -5            5             z             1.0           0.0           1
z74           none          absolute(1)   0.0           -5            5             z             1.0           0.0           1
z75           none          absolute(1)   0.0           -5            5             z             1.0           0.0           1
z76           none          absolute(1)   0.0           -5            5             z             1.0           0.0           1
z77           none          absolute(1)   0.0           -5            5             z             1.0           0.0           1
z78           none          absolute(1)   0.0           -5            5             z             1.0           0.0           1
z79           none          absolute(1)   0.0           -5            5             z             1.0           0.0           1
z80           none          absolute(1)   0.0           -5            5             z             1.0           0.0           1
z81           none          absolute(1)   0.0           -5            5             z             1.0           0.0           1
z82           none          absolute(1)   0.0           -5            5             z             1.0           0.0           1
z83           none          absolute(1)   0.0           -5            5             z             1.0           0.0           1
z84           none          absolute(1)   0.0           -5            5             z             1.0           0.0           1
z85           none          absolute(1)   0.0           -5            5             z             1.0           0.0           1
z86           none          absolute(1)   0.0           -5            5             z             1.0           0.0           1
z87           none          absolute(1)   0.0           -5            5             z             1.0           0.0           1
z88           none          absolute(1)   0.0           -5            5             z             1.0           0.0           1
z89           none          absolute(1)   0.0           -5            5             z             1.0           0.0           1
z90           none          absolute(1)   0.0           -5            5             z             1.0           0.0           1
z91           none          absolute(1)   0.0           -5            5             z             1.0           0.0           1
z92           none          absolute(1)   0.0           -5            5             z             1.0           0.0           1
z93           none          absolute(1)   0.0           -5            5             z             1.0           0.0           1
z94           none          absolute(1)   0.0           -5            5             z             1.0           0.0           1
z95           none          absolute(1)   0.0           -5            5             z             1.0           0.0           1
z96           none          absolute(1)   0.0           -5            5             z             1.0           0.0           1
z97           none          absolute(1)   0.0           -5            5             z             1.0           0.0           1
z98           none          absolute(1)   0.0           -5            5             z             1.0           0.0           1
z99           none          absolute(1)   0.0           -5            5             z             1.0           0.0           1
z100          none          absolute(1)   0.0           -5            5             z             1.0           0.0           1
z101          none          absolute(1)   0.0           -5            5             z             1.0           0.0           1
z102          none          absolute(1)   0.0           -5            5             z             1.0           0.0           1
z103          none          absolute(1)   0.0           -5            5             z             1.0           0.0           1
z104          none          absolute(1)   0.0           -5            5             z             1.0           0.0           1
z105          none          absolute(1)   0.0           -5            5             z             1.0           0.0           1
z106          none          absolute(1)   0.0           -5            5             z             1.0           0.0           1
z107          none          absolute(1)   0.0           -5            5             z             1.0           0.0           1
z108          none          absolute(1)   0.0           -5            5             z             1.0           0.0           1
z109          none          absolute(1)   0.0           -5            5             z             1.0           0.0           1
z110          none          absolute(1)   0.0           -5            5             z             1.0           0.0           1
z111          none          absolute(1)   0.0           -5            5             z             1.0           0.0           1
z112          none          absolute(1)   0.0           -5            5             z             1.0           0.0           1
z113          none          absolute(1)   0.0           -5            5             z             1.0           0.0           1
z114          none          absolute(1)   0.0           -5            5             z             1.0           0.0           1
z115          none          absolute(1)   0.0           -5            5             z             1.0           0.0           1
z116          none          absolute(1)   0.0           -5            5             z             1.0           0.0           1
z117          none          absolute(1)   0.0           -5            5             z             1.0           0.0           1
z118          none          absolute(1)   0.0           -5            5             z             1.0           0.0           1
z119          none          absolute(1)   0.0           -5            5             z             1.0           0.0           1
z120          none          absolute(1)   0.0           -5            5             z             1.0           0.0           1
z121          none          absolute(1)   0.0           -5            5             z             1.0           0.0           1
z122          none          absolute(1)   0.0           -5            5             z             1.0           0.0           1
z123          none          absolute(1)   0.0           -5            5             z             1.0           0.0           1
z124          none          absolute(1)   0.0           -5            5             z             1.0           0.0           1
z125          none          absolute(1)   0.0           -5            5             z             1.0           0.0           1
z126          none          absolute(1)   0.0           -5            5             z             1.0           0.0           1
z127          none          absolute(1)   0.0           -5            5             z             1.0           0.0           1
z128          none          absolute(1)   0.0           -5            5             z             1.0           0.0           1
z129          none          absolute(1)   0.0           -5            5             z             1.0           0.0           1
z130          none          absolute(1)   0.0           -5            5             z             1.0           0.0           1
z131          none          absolute(1)   0.0           -5            5             z             1.0           0.0           1
z132          none          absolute(1)   0.0           -5            5             z             1.0           0.0           1
z133          none          absolute(1)   0.0           -5            5             z             1.0           0.0           1
z134          none          absolute(1)   0.0           -5            5             z             1.0           0.0           1
z135          none          absolute(1)   0.0           -5            5             z             1.0           0.0           1
z136          none          absolute(1)   0.0           -5            5             z             1.0           0.0           1
z137          none          absolute(1)   0.0           -5            5             z             1.0           0.0           1
z138          none          absolute(1)   0.0           -5            5             z             1.0           0.0           1
z139          none          absolute(1)   0.0           -5            5             z             1.0           0.0           1
z140          none          absolute(1)   0.0           -5            5             z             1.0           0.0           1
z141          none          absolute(1)   0.0           -5            5             z             1.0           0.0           1
z142          none          absolute(1)   0.0           -5            5             z             1.0           0.0           1
z143          none          absolute(1)   0.0           -5            5             z             1.0           0.0           1
z144          none          absolute(1)   0.0           -5            5             z             1.0           0.0           1
z145          none          absolute(1)   0.0           -5            5             z             1.0           0.0           1
z146          none          absolute(1)   0.0           -5            5             z             1.0           0.0           1
z147          none          absolute(1)   0.0           -5            5             z             1.0           0.0           1
z148          none          absolute(1)   0.0           -5            5             z             1.0           0.0           1
z149          none          absolute(1)   0.0           -5            5             z             1.0           0.0           1
z150          none          absolute(1)   0.0           -5            5             z             1.0           0.0           1
z151          none          absolute(1)   0.0           -5            5             z             1.0           0.0           1
z152          none          absolute(1)   0.0           -5            5             z             1.0           0.0           1
z153          none          absolute(1)   0.0           -5            5             z             1.0           0.0           1
z154          none          absolute(1)   0.0           -5            5             z             1.0           0.0           1
z155          none          absolute(1)   0.0           -5            5             z             1.0           0.0           1
z156          none          absolute(1)   0.0           -5            5             z             1.0           0.0           1
z157          none          absolute(1)   0.0           -5            5             z             1.0           0.0           1
z158          none          absolute(1)   0.0           -5            5             z             1.0           0.0           1
z159          none          absolute(1)   0.0           -5            5             z             1.0           0.0           1
z160          none          absolute(1)   0.0           -5            5             z             1.0           0.0           1
z161          none          absolute(1)   0.0           -5            5             z             1.0           0.0           1
z162          none          absolute(1)   0.0           -5            5             z             1.0           0.0           1
z163          none          absolute(1)   0.0           -5            5             z             1.0           0.0           1
z164          none          absolute(1)   0.0           -5            5             z             1.0           0.0           1
z165          none          absolute(1)   0.0           -5            5             z             1.0           0.0           1
z166          none          absolute(1)   0.0           -5            5             z             1.0           0.0           1
z167          none          absolute(1)   0.0           -5            5             z             1.0           0.0           1
z168          none          absolute(1)   0.0           -5            5             z             1.0           0.0           1
z169          none          absolute(1)   0.0           -5            5             z             1.0           0.0           1
z170          none          absolute(1)   0.0           -5            5             z             1.0           0.0           1
z171          none          absolute(1)   0.0           -5            5             z             1.0           0.0           1
z172          none          absolute(1)   0.0           -5            5             z             1.0           0.0           1
z173          none          absolute(1)   0.0           -5            5             z             1.0           0.0           1
z174          none          absolute(1)   0.0           -5            5             z             1.0           0.0           1
z175          none          absolute(1)   0.0           -5            5             z             1.0           0.0           1
z176          none          absolute(1)   0.0           -5            5             z             1.0           0.0           1
z177          none          absolute(1)   0.0           -5            5             z             1.0           0.0           1
z178          none          absolute(1)   0.0           -5            5             z             1.0           0.0           1
z179          none          absolute(1)   0.0           -5            5             z             1.0           0.0           1
z180          none          absolute(1)   0.0           -5            5             z             1.0           0.0           1
z181          none          absolute(1)   0.0           -5            5             z             1.0           0.0           1
z182          none          absolute(1)   0.0           -5            5             z             1.0           0.0           1
z183          none          absolute(1)   0.0           -5            5             z             1.0           0.0           1
z184          none          absolute(1)   0.0           -5            5             z             1.0           0.0           1
z185          none          absolute(1)   0.0           -5            5             z             1.0           0.0           1
z186          none          absolute(1)   0.0           -5            5             z             1.0           0.0           1
z187          none          absolute(1)   0.0           -5            5             z             1.0           0.0           1
z188          none          absolute(1)   0.0           -5            5             z             1.0           0.0           1
z189          none          absolute(1)   0.0           -5            5             z             1.0           0.0           1
z190          none          absolute(1)   0.0           -5            5             z             1.0           0.0           1
z191          none          absolute(1)   0.0           -5            5             z             1.0           0.0           1
z192          none          absolute(1)   0.0           -5            5             z             1.0           0.0           1
z193          none          absolute(1)   0.0           -5            5             z             1.0           0.0           1
z194          none          absolute(1)   0.0           -5            5             z             1.0           0.0           1
z195          none          absolute(1)   0.0           -5            5             z             1.0           0.0           1
z196          none          absolute(1)   0.0           -5            5             z             1.0           0.0           1
z197          none          absolute(1)   0.0           -5            5             z             1.0           0.0           1
z198          none          absolute(1)   0.0           -5            5             z             1.0           0.0           1
z199          none          absolute(1)   0.0           -5            5             z             1.0           0.0           1
z200          none          absolute(1)   0.0           -5            5             z             1.0           0.0           1
z201          none          absolute(1)   0.0           -5            5             z             1.0           0.0           1
z202          none          absolute(1)   0.0           -5            5             z             1.0           0.0           1
z203          none          absolute(1)   0.0           -5            5             z             1.0           0.0           1
z204          none          absolute(1)   0.0           -5            5             z             1.0           0.0           1
z205          none          absolute(1)   0.0           -5            5             z             1.0           0.0           1
z206          none          absolute(1)   0.0           -5            5             z             1.0           0.0           1
z207          none          absolute(1)   0.0           -5            5             z             1.0           0.0           1
z208          none          absolute(1)   0.0           -5            5             z             1.0           0.0           1
z209          none          absolute(1)   0.0           -5            5             z             1.0           0.0           1
z210          none          absolute(1)   0.0           -5            5             z             1.0           0.0           1
z211          none          absolute(1)   0.0           -5            5             z             1.0           0.0           1
z212          none          absolute(1)   0.0           -5            5             z             1.0           0.0           1
z213          none          absolute(1)   0.0           -5            5             z             1.0           0.0           1
z214          none          absolute(1)   0.0           -5            5             z             1.0           0.0           1
z215          none          absolute(1)   0.0           -5            5             z             1.0           0.0           1
z216          none          absolute(1)   0.0           -5            5             z             1.0           0.0           1
z217          none          absolute(1)   0.0           -5            5             z             1.0           0.0           1
z218          none          absolute(1)   0.0           -5            5             z             1.0           0.0           1
z219          none          absolute(1)   0.0           -5            5             z             1.0           0.0           1
z220          none          absolute(1)   0.0           -5            5             z             1.0           0.0           1
z221          none          absolute(1)   0.0           -5            5             z             1.0           0.0           1
z222          none          absolute(1)   0.0           -5            5             z             1.0           0.0           1
z223          none          absolute(1)   0.0           -5            5             z             1.0           0.0           1
z224          none          absolute(1)   0.0           -5            5             z             1.0           0.0           1
z225          none          absolute(1)   0.0           -5            5             z             1.0           0.0           1
z226          none          absolute(1)   0.0           -5            5             z             1.0           0.0           1