# File generated by Flopy version 3.3.6 on 06/26/2023 at 16:14:30.
BEGIN options
CONTINUE
END options

BEGIN timing
  TDIS6  sva_tm.tdis
END timing

BEGIN models
  gwf6  sva_tm.nam  sva_tm
  gwt6  sva_tm_t.nam  sva_tm_t
END models

BEGIN exchanges
  GWF6-GWT6  sva_tm.gwfgwt  sva_tm  sva_tm_t
END exchanges

BEGIN solutiongroup  1
  ims6  sva_tm.ims  sva_tm
  ims6  sva_tm_t.ims  sva_tm_t
END solutiongroup  1

