# File generated by Flopy version 3.3.6 on 06/26/2023 at 16:14:30.
BEGIN options
  BUDGET  FILEOUT  sva_tm_t.cbc
  CONCENTRATION  FILEOUT  sva_tm_t.ucn
  CONCENTRATION  PRINT_FORMAT  COLUMNS  10  WIDTH  15  DIGITS  6  GENERAL
END options

BEGIN period  1
  SAVE  CONCENTRATION  ALL
  SAVE  BUDGET  ALL
  PRINT  CONCENTRATION  LAST
  PRINT  BUDGET  ALL
END period  1

