# File generated by Flopy version 3.3.6 on 06/26/2023 at 16:14:30.
BEGIN options
END options

BEGIN griddata
  porosity
    CONSTANT       0.25000000
END griddata

