# File generated by Flopy version 3.3.6 on 06/26/2023 at 16:14:30.
BEGIN options
  SAVE_FLOWS
END options

BEGIN packages
  DIS6  sva_tm_t.dis  dis
  IC6  sva_tm_t.ic  ict
  ADV6  sva_tm_t.adv  adv
  DSP6  sva_tm_t.dsp  dsp
  MST6  sva_tm_t.mst  mst
  SSM6  sva_tm_t.ssm  ssm
  OC6  sva_tm_t.oc  oc
  OBS6  sva_tm_t.obs  conc_obs
END packages

