# File generated by Flopy version 3.3.6 on 06/26/2023 at 16:14:30.
BEGIN options
  auxiliary  CONCENTRATION
  PRINT_INPUT
  PRINT_FLOWS
END options

BEGIN dimensions
  MAXBOUND  10
END dimensions

BEGIN period  1
  1 17 17  -7.14285714E-05       0.00000000
  1 33 17  -7.14285714E-05       0.00000000
  1 9 26  -7.14285714E-05       0.00000000
  1 17 35  -7.14285714E-05       0.00000000
  1 33 35  -7.14285714E-05       0.00000000
  1 26 26  -7.14285714E-05       0.00000000
  1 41 26  -7.14285714E-05       0.00000000
END period  1

BEGIN period  2
  1 17 17  -5.00000000E-05       0.00000000
  1 33 17  -5.00000000E-05       0.00000000
  1 9 26  -5.00000000E-05       0.00000000
  1 17 35  -5.00000000E-05       0.00000000
  1 33 35  -5.00000000E-05       0.00000000
  1 26 26  -5.00000000E-05       0.00000000
  1 41 26  -5.00000000E-05       0.00000000
  1 4 39  -5.00000000E-05       0.00000000
  1 27 3  -5.00000000E-05       0.00000000
  1 46 46  -5.00000000E-05       0.00000000
END period  2

