# File generated by Flopy version 3.3.6 on 08/18/2023 at 12:51:25.
BEGIN options
END options

BEGIN griddata
  porosity
    CONSTANT       0.25000000
END griddata

