# File generated by Flopy version 3.3.6 on 08/18/2023 at 12:51:25.
BEGIN griddata
  strt
    CONSTANT       0.00000000
END griddata

