# File generated by Flopy version 3.3.6 on 08/18/2023 at 12:51:25.
BEGIN options
  XT3D_OFF
END options

BEGIN griddata
  alh
    CONSTANT       0.00500000
  ath1
    CONSTANT  5.00000000E-04
END griddata

