# File generated by Flopy version 3.3.6 on 10/30/2023 at 12:35:44.
BEGIN options
  SAVE_FLOWS
END options

BEGIN griddata
  icelltype
    CONSTANT  0
  k
    OPEN/CLOSE  'k.dat'  FACTOR  1.0
  k33
    OPEN/CLOSE  'k.dat'  FACTOR  1.0
END griddata

