# File generated by Flopy version 3.3.6 on 10/30/2023 at 12:35:44.
BEGIN options
  TIME_UNITS  days
END options

BEGIN dimensions
  NPER  2
END dimensions

BEGIN perioddata
     200.00000000  100       1.00000000
     400.00000000  200       1.00000000
END perioddata

