# File generated by Flopy version 3.3.6 on 10/30/2023 at 12:35:44.
BEGIN griddata
  strt
    CONSTANT       0.00000000
END griddata

