# File generated by Flopy version 3.3.6 on 10/30/2023 at 12:35:44.
BEGIN options
END options

BEGIN sources
  wel2  AUX  CONCENTRATION
END sources

