# File generated by Flopy version 3.3.6 on 10/30/2023 at 12:35:44.
BEGIN options
  DIGITS  4
END options

BEGIN continuous  FILEOUT  sva_tm_t_.obs.csv
  mw1  concentration  1 17 17
  mw2  concentration  1 33 17
  mw3  concentration  1 9 26
  mw4  concentration  1 17 35
  mw5  concentration  1 33 35
  mw6  concentration  1 26 26
  mw7  concentration  1 41 26
  mw8  concentration  1 4 39
  mw9  concentration  1 27 3
  mw10  concentration  1 46 46
END continuous  FILEOUT  sva_tm_t_.obs.csv

