# File generated by Flopy version 3.3.6 on 10/30/2023 at 12:35:44.
BEGIN options
END options

BEGIN dimensions
  NLAY  1
  NROW  50
  NCOL  50
END dimensions

BEGIN griddata
  delr
    CONSTANT       0.02000000
  delc
    CONSTANT       0.02000000
  top
    CONSTANT       0.00000000
  botm
    CONSTANT      -1.00000000
END griddata

