# File generated by Flopy version 3.3.6 on 10/30/2023 at 12:35:44.
BEGIN options
  XT3D_OFF
END options

BEGIN griddata
  alh
    CONSTANT       0.00500000
  ath1
    CONSTANT  5.00000000E-04
END griddata

